# File generated by Flopy version 3.3.2 on 02/05/2021 at 01:53:20.
BEGIN options
  SAVE_FLOWS
END options

BEGIN griddata
  icelltype
    CONSTANT  1
  k
    CONSTANT       1.00000000
END griddata

