# File generated by Flopy version 3.3.2 on 02/05/2021 at 01:59:10.
BEGIN options
  COMPLEXITY  simple
END options

