# File generated by Flopy version 3.3.2 on 02/05/2021 at 01:59:11.
BEGIN options
  READASARRAYS
END options

BEGIN period  1
  recharge
    CONSTANT       0.00100000
END period  1

