# File generated by Flopy version 3.3.2 on 02/05/2021 at 00:12:51.
BEGIN options
  COMPLEXITY  simple
END options

