# File generated by Flopy version 3.3.2 on 02/04/2021 at 23:37:22.
BEGIN options
END options

BEGIN packages
  DIS6  tutorial01_mf6.dis  dis
  IC6  tutorial01_mf6.ic  ic
  NPF6  tutorial01_mf6.npf  npf
  CHD6  tutorial01_mf6.chd  chd_0
  RCH6  tutorial01_mf6.rcha  rcha
  OC6  tutorial01_mf6.oc  oc
END packages

